   31
jmolscript: load "" {1 1 1} spacegroup "x,y,z" unitcell [{      8.415900     0.000000     0.000000 }, {      4.207950     7.288380     0.000000 }, {      0.000000     0.000000    24.000000 }]
Pt     0.000000     0.000000     0.000000    -0.015418
Pt     2.805301     4.858922     0.000000    -0.020909
Pt     1.402649     2.429458     0.000000    -0.040771
Pt     2.805297     0.000000     0.000000    -0.015669
Pt     5.610599     4.858922     0.000000    -0.013965
Pt     4.207946     2.429458     0.000000    -0.017257
Pt     5.610603     0.000000     0.000000    -0.031232
Pt     8.415904     4.858922     0.000000    -0.014675
Pt     7.013251     2.429458     0.000000    -0.018631
Pt     4.207950     5.668742     2.290536     0.002367
Pt     2.805301     3.239284     2.290536     0.046631
Pt     1.402649     0.809819     2.290536     0.037179
Pt     7.013247     5.668742     2.290536     0.006302
Pt     5.610599     3.239284     2.290536     0.015144
Pt     4.207946     0.809819     2.290536     0.069112
Pt     9.818553     5.668742     2.290536     0.074267
Pt     8.415904     3.239284     2.290536     0.049382
Pt     7.013251     0.809819     2.290536     0.074097
Pt     5.610603     6.478568     4.581048     0.145685
Pt     4.207950     4.049103     4.581048     0.080996
Pt     2.805297     1.619638     4.581048    -0.071322
Pt     8.415900     6.478568     4.581048    -0.053977
Pt     7.013247     4.049103     4.581048     0.097733
Pt     5.610603     1.619638     4.581048    -0.043996
Pt    11.221206     6.478568     4.581048    -0.054086
Pt     9.818553     4.049103     4.581048    -0.074249
Pt     8.415900     1.619638     4.581048    -0.075127
C      6.274550     5.660958     6.341784    -0.109764
C      5.513567     4.677959     5.842992    -0.038594
O      3.853476     1.041969    12.618336    -0.221250
H      6.760602     6.010683     7.246560     0.231998
 
 Chargemol version 3.5 September 26, 2017.
See ddec.sourceforge.net for latest version.
 
Computational parameters:
Number of radial integration shells =    100
Cutoff radius (pm) =    500
Error in the integrated total number of electrons before renormalization (e) =    7.2695E-05
Charge convergence tolerance =    1.0000E-05
Minimum radius for electron cloud penetration fitting (pm) =    200
Minimum decay exponent for electron density of buried atom tails =   1.7500
Maximum decay exponent for electron density of buried atom tails =  2.5000
Number of iterations to convergence =      7
 
The following XYZ coordinates are in angstroms. The atomic dipoles and quadrupoles are in atomic units.
atom number, atomic symbol, x, y, z, net_charge, dipole_x, dipole_y, dipole_z, dipole_mag, Qxy, Qxz, Qyz,Q(x^2-y^2), Q(3z^2 - R^2), three eigenvalues of traceless quadrupole moment tensor
    1 Pt     0.000000     0.000000     0.000000    -0.015418     0.001233    -0.003099    -0.129871     0.129914     0.002087     0.008237    -0.002753     0.004051     0.299681    -0.053081    -0.047315     0.100397
    2 Pt     2.805301     4.858922     0.000000    -0.020909     0.005261     0.001740    -0.122815     0.122940    -0.001684     0.000420    -0.007760    -0.007951     0.256355    -0.047054    -0.038883     0.085937
    3 Pt     1.402649     2.429458     0.000000    -0.040771    -0.000586    -0.000334    -0.127212     0.127213     0.001079     0.001257    -0.000125    -0.000065     0.205033    -0.035262    -0.033098     0.068360
    4 Pt     2.805297     0.000000     0.000000    -0.015669    -0.001679    -0.002121    -0.125695     0.125724    -0.000600    -0.003923    -0.004017     0.013056     0.302310    -0.057053    -0.043925     0.100978
    5 Pt     5.610599     4.858922     0.000000    -0.013965    -0.000849    -0.000066    -0.115027     0.115031    -0.001850     0.001024     0.002202    -0.002340     0.302399    -0.052614    -0.048225     0.100839
    6 Pt     4.207946     2.429458     0.000000    -0.017257     0.001803     0.001726    -0.127567     0.127591    -0.004060    -0.003178     0.006689    -0.001789     0.289544    -0.052435    -0.044467     0.096902
    7 Pt     5.610603     0.000000     0.000000    -0.031232    -0.000680     0.000701    -0.128622     0.128625     0.000911    -0.000910     0.000051     0.002081     0.249387    -0.042949    -0.040187     0.083136
    8 Pt     8.415904     4.858922     0.000000    -0.014675    -0.001690    -0.000694    -0.130259     0.130272     0.003553    -0.006040    -0.000481    -0.006858     0.322368    -0.058840    -0.048839     0.107680
    9 Pt     7.013251     2.429458     0.000000    -0.018631    -0.001713     0.002260    -0.126227     0.126259     0.002855    -0.000528     0.006062    -0.000849     0.275156    -0.048884    -0.043103     0.091987
   10 Pt     4.207950     5.668742     2.290536     0.002367    -0.015724    -0.004236    -0.040077     0.043259    -0.004856    -0.028334    -0.000402    -0.001296     0.025314    -0.027996    -0.003106     0.031102
   11 Pt     2.805301     3.239284     2.290536     0.046631    -0.028053    -0.016359    -0.031667     0.045359     0.012550    -0.025958    -0.014096     0.007677     0.042773    -0.022650    -0.017178     0.039828
   12 Pt     1.402649     0.809819     2.290536     0.037179     0.002493     0.035408    -0.035790     0.050407     0.003101     0.001666     0.040860    -0.008476     0.030616    -0.036620    -0.009480     0.046099
   13 Pt     7.013247     5.668742     2.290536     0.006302     0.010261     0.001346    -0.031553     0.033206     0.010321     0.022207     0.006085     0.003320     0.039480    -0.022159    -0.008947     0.031106
   14 Pt     5.610599     3.239284     2.290536     0.015144    -0.001850    -0.005678    -0.026198     0.026870    -0.000728    -0.003818    -0.017373    -0.011478     0.041948    -0.015466    -0.010075     0.025541
   15 Pt     4.207946     0.809819     2.290536     0.069112    -0.003009     0.001543     0.001009     0.003529     0.004035     0.000923     0.001023    -0.002293     0.074739    -0.016652    -0.008318     0.024970
   16 Pt     9.818553     5.668742     2.290536     0.074267     0.000775    -0.002644     0.004213     0.005034    -0.001501     0.002310    -0.001552     0.012304     0.087999    -0.021031    -0.008496     0.029527
   17 Pt     8.415904     3.239284     2.290536     0.049382     0.022430    -0.013612    -0.025995     0.036935    -0.008073     0.028438    -0.014622     0.006589     0.047127    -0.024976    -0.016074     0.041050
   18 Pt     7.013251     0.809819     2.290536     0.074097     0.002887     0.000644     0.003642     0.004692    -0.005216    -0.001223     0.001380    -0.002208     0.082121    -0.019019    -0.008450     0.027468
   19 Pt     5.610603     6.478568     4.581048     0.145685    -0.022634    -0.036977    -0.023095     0.049122    -0.012996     0.020934    -0.142450    -0.054505     0.141700    -0.118890    -0.053311     0.172201
   20 Pt     4.207950     4.049103     4.581048     0.080996    -0.037657    -0.025616    -0.036098     0.058115     0.015689     0.078991     0.042108     0.034724    -0.016420    -0.081074    -0.019904     0.100978
   21 Pt     2.805297     1.619638     4.581048    -0.071322    -0.003650     0.011417     0.126834     0.127399    -0.028434    -0.000241    -0.001445     0.027748     0.253429    -0.073888    -0.010603     0.084491
   22 Pt     8.415900     6.478568     4.581048    -0.053977     0.012149     0.009560     0.085763     0.087145    -0.003925    -0.012994     0.001102     0.018998     0.073432    -0.022571    -0.007234     0.029805
   23 Pt     7.013247     4.049103     4.581048     0.097733    -0.004381     0.007842     0.022880     0.024580    -0.027857    -0.086618     0.055887     0.012500     0.096647    -0.082037    -0.043669     0.125705
   24 Pt     5.610603     1.619638     4.581048    -0.043996    -0.002512     0.000043     0.128915     0.128939    -0.012356     0.001705     0.025284    -0.014185     0.196591    -0.049012    -0.023078     0.072090
   25 Pt    11.221206     6.478568     4.581048    -0.054086    -0.011116     0.003832     0.128250     0.128787    -0.008656     0.020315    -0.009000    -0.012397     0.239750    -0.052240    -0.031762     0.084002
   26 Pt     9.818553     4.049103     4.581048    -0.074249     0.006517    -0.009266     0.129358     0.129853     0.001034     0.006212    -0.004214    -0.066528     0.248473    -0.074942    -0.008317     0.083259
   27 Pt     8.415900     1.619638     4.581048    -0.075127     0.004528     0.005345     0.125434     0.125630     0.039676    -0.003032    -0.000360     0.047254     0.284235    -0.093558    -0.001277     0.094835
   28 C      6.274550     5.660958     6.341784    -0.109764     0.001279    -0.004451     0.031898     0.032232    -0.084778    -0.105893    -0.033144     0.058711     0.012456    -0.149725     0.015192     0.134533
   29 C      5.513567     4.677959     5.842992    -0.038594     0.001200    -0.011570     0.086019     0.086802    -0.084558    -0.042129    -0.089599    -0.049722     0.254795    -0.162795     0.025681     0.137114
   30 O      3.853476     1.041969    12.618336    -0.221250     0.000752     0.001151     0.019521     0.019570    -0.000155    -0.000603    -0.001053     0.000623    -0.047682    -0.015956     0.007656     0.008300
   31 H      6.760602     6.010683     7.246560     0.231998     0.024430     0.020185     0.056039     0.064379     0.006043     0.009460     0.006398    -0.002250     0.021558    -0.010858    -0.005457     0.016315
 
The sperically averaged electron density of each atom fit to a function of the form exp(a - br) for r >=rmin_cloud_penetration
atom number,atomic symbol, x, y, z, a, b, Rsquared where a and b are in atomic units and Rsquared is the squared correlation coefficient
    1 Pt     0.000000     0.000000     0.000000     0.643444     1.744564     0.999943
    2 Pt     2.805301     4.858922     0.000000     0.647326     1.744828     0.999941
    3 Pt     1.402649     2.429458     0.000000     0.664823     1.745169     0.999942
    4 Pt     2.805297     0.000000     0.000000     0.643985     1.744962     0.999940
    5 Pt     5.610599     4.858922     0.000000     0.644282     1.744944     0.999940
    6 Pt     4.207946     2.429458     0.000000     0.647622     1.745167     0.999941
    7 Pt     5.610603     0.000000     0.000000     0.655178     1.745205     0.999941
    8 Pt     8.415904     4.858922     0.000000     0.641967     1.744669     0.999943
    9 Pt     7.013251     2.429458     0.000000     0.645284     1.744974     0.999940
   10 Pt     4.207950     5.668742     2.290536     0.691747     1.754499     0.999997
   11 Pt     2.805301     3.239284     2.290536     0.661042     1.752220     0.999998
   12 Pt     1.402649     0.809819     2.290536     0.668949     1.752962     0.999998
   13 Pt     7.013247     5.668742     2.290536     0.686365     1.754714     0.999994
   14 Pt     5.610599     3.239284     2.290536     0.691247     1.755690     0.999995
   15 Pt     4.207946     0.809819     2.290536     0.667281     1.754247     0.999997
   16 Pt     9.818553     5.668742     2.290536     0.667978     1.754518     0.999997
   17 Pt     8.415904     3.239284     2.290536     0.673162     1.754246     0.999998
   18 Pt     7.013251     0.809819     2.290536     0.667332     1.754249     0.999997
   19 Pt     5.610603     6.478568     4.581048     0.650648     1.778075     0.999966
   20 Pt     4.207950     4.049103     4.581048     0.624297     1.766846     0.999927
   21 Pt     2.805297     1.619638     4.581048     0.779374     1.763484     0.999987
   22 Pt     8.415900     6.478568     4.581048     0.781547     1.771763     0.999986
   23 Pt     7.013247     4.049103     4.581048     0.669269     1.773974     0.999964
   24 Pt     5.610603     1.619638     4.581048     0.754511     1.761094     0.999992
   25 Pt    11.221206     6.478568     4.581048     0.754801     1.760769     0.999990
   26 Pt     9.818553     4.049103     4.581048     0.802450     1.764852     0.999995
   27 Pt     8.415900     1.619638     4.581048     0.801796     1.766612     0.999974
   28 C      6.274550     5.660958     6.341784    -1.061253     1.728149     0.999295
   29 C      5.513567     4.677959     5.842992    -0.669609     1.763672     0.999740
   30 O      3.853476     1.041969    12.618336    -1.216912     1.760558     0.996215
   31 H      6.760602     6.010683     7.246560    -4.219549     1.641000     0.999327
 
 2020/09/06  09:57:15
