   33
jmolscript: load "" {1 1 1} spacegroup "x,y,z" unitcell [{      8.415900     0.000000     0.000000 }, {      4.207950     7.288380     0.000000 }, {      0.000000     0.000000    24.000000 }]
Pt     0.000000     0.000000     0.000000    -0.040659
Pt     2.805301     4.858922     0.000000    -0.033495
Pt     1.402649     2.429458     0.000000    -0.034127
Pt     2.805297     0.000000     0.000000    -0.044079
Pt     5.610599     4.858922     0.000000    -0.025038
Pt     4.207946     2.429458     0.000000    -0.039448
Pt     5.610603     0.000000     0.000000    -0.040371
Pt     8.415904     4.858922     0.000000    -0.028640
Pt     7.013251     2.429458     0.000000    -0.027782
Pt     4.207950     5.668742     2.290536     0.071900
Pt     2.805301     3.239284     2.290536     0.055731
Pt     1.402649     0.809819     2.290536     0.077637
Pt     7.013247     5.668742     2.290536     0.034217
Pt     5.610599     3.239284     2.290536     0.034246
Pt     4.207946     0.809819     2.290536     0.069920
Pt     9.818553     5.668742     2.290536     0.042547
Pt     8.415904     3.239284     2.290536     0.026863
Pt     7.013251     0.809819     2.290536     0.065225
Pt     5.610603     6.478568     4.581048    -0.075831
Pt     4.207950     4.049103     4.581048    -0.057265
Pt     2.805297     1.619638     4.581048    -0.076736
Pt     8.415900     6.478568     4.581048     0.010208
Pt     7.013247     4.049103     4.581048     0.039977
Pt     5.610603     1.619638     4.581048    -0.022844
Pt    11.221206     6.478568     4.581048    -0.023153
Pt     9.818553     4.049103     4.581048     0.024517
Pt     8.415900     1.619638     4.581048    -0.080548
C      7.663009     3.535047     6.335640     0.183843
C      9.089525     3.929982     6.733896     0.084537
O      9.203313     5.057181     7.296552    -0.332534
O      6.836316     3.182143     7.312440    -0.314657
H      9.765242     3.074435     6.983880     0.078664
H      7.311242     3.145147     8.174520     0.397173
 
 Chargemol version 3.5 September 26, 2017.
See ddec.sourceforge.net for latest version.
 
Computational parameters:
Number of radial integration shells =    100
Cutoff radius (pm) =    500
Error in the integrated total number of electrons before renormalization (e) =    5.8601E-05
Charge convergence tolerance =    1.0000E-05
Minimum radius for electron cloud penetration fitting (pm) =    200
Minimum decay exponent for electron density of buried atom tails =   1.7500
Maximum decay exponent for electron density of buried atom tails =  2.5000
Number of iterations to convergence =      7
 
The following XYZ coordinates are in angstroms. The atomic dipoles and quadrupoles are in atomic units.
atom number, atomic symbol, x, y, z, net_charge, dipole_x, dipole_y, dipole_z, dipole_mag, Qxy, Qxz, Qyz,Q(x^2-y^2), Q(3z^2 - R^2), three eigenvalues of traceless quadrupole moment tensor
    1 Pt     0.000000     0.000000     0.000000    -0.040659    -0.000934     0.000490    -0.114450     0.114455     0.001572     0.000616     0.001401     0.004056     0.148331    -0.027305    -0.022171     0.049475
    2 Pt     2.805301     4.858922     0.000000    -0.033495    -0.001793     0.001795    -0.107959     0.107989     0.000199    -0.003608    -0.004943    -0.008413     0.157617    -0.030633    -0.022389     0.053021
    3 Pt     1.402649     2.429458     0.000000    -0.034127     0.000036    -0.000900    -0.109427     0.109431     0.002706    -0.000694     0.005544    -0.003131     0.148932    -0.028100    -0.021966     0.050066
    4 Pt     2.805297     0.000000     0.000000    -0.044079    -0.001499    -0.001177    -0.106527     0.106544     0.000469     0.008338     0.004674     0.009392     0.102383    -0.022154    -0.013804     0.035958
    5 Pt     5.610599     4.858922     0.000000    -0.025038    -0.001017    -0.001046    -0.109514     0.109524    -0.001246     0.009767    -0.001708    -0.005397     0.200216    -0.037168    -0.030524     0.067692
    6 Pt     4.207946     2.429458     0.000000    -0.039448     0.000436     0.003728    -0.108602     0.108667    -0.001612    -0.002449    -0.011964    -0.005770     0.142759    -0.027596    -0.022080     0.049676
    7 Pt     5.610603     0.000000     0.000000    -0.040371     0.000787    -0.001951    -0.102417     0.102439    -0.002200    -0.003877     0.001383     0.004438     0.105392    -0.020691    -0.014779     0.035470
    8 Pt     8.415904     4.858922     0.000000    -0.028640     0.001722     0.001690    -0.103607     0.103635     0.001397    -0.003448    -0.004732     0.001330     0.189657    -0.033210    -0.030373     0.063583
    9 Pt     7.013251     2.429458     0.000000    -0.027782    -0.001089    -0.000472    -0.107650     0.107657    -0.002653     0.002370     0.006608    -0.003845     0.182826    -0.034033    -0.027444     0.061477
   10 Pt     4.207950     5.668742     2.290536     0.071900     0.001599    -0.001117     0.000188     0.001959    -0.000066     0.001162    -0.000039    -0.007130     0.089876    -0.018573    -0.011414     0.029987
   11 Pt     2.805301     3.239284     2.290536     0.055731     0.009390    -0.006005    -0.010420     0.015258     0.001644     0.015161    -0.008968     0.006570     0.079097    -0.021256    -0.011873     0.033128
   12 Pt     1.402649     0.809819     2.290536     0.077637     0.003403    -0.001139     0.001137     0.003764    -0.002413     0.005069    -0.003466     0.000805     0.101466    -0.019366    -0.015223     0.034590
   13 Pt     7.013247     5.668742     2.290536     0.034217     0.002596     0.027194    -0.034337     0.043878     0.000578    -0.005231     0.022092    -0.008488     0.082150    -0.021879    -0.016211     0.038090
   14 Pt     5.610599     3.239284     2.290536     0.034246    -0.021047    -0.013254    -0.025496     0.035619     0.000238    -0.020401    -0.007307     0.009640     0.083233    -0.021635    -0.015999     0.037634
   15 Pt     4.207946     0.809819     2.290536     0.069920    -0.001454     0.001395    -0.001369     0.002437     0.002534    -0.004524     0.001963    -0.009395     0.080652    -0.019293    -0.008122     0.027415
   16 Pt     9.818553     5.668742     2.290536     0.042547    -0.001407     0.009104    -0.024973     0.026618    -0.000991     0.005622     0.010326     0.000302     0.060053    -0.014910    -0.009069     0.023979
   17 Pt     8.415904     3.239284     2.290536     0.026863     0.004877    -0.009110    -0.024014     0.026142     0.000481     0.001707    -0.014375    -0.003699     0.089088    -0.018075    -0.016053     0.034128
   18 Pt     7.013251     0.809819     2.290536     0.065225    -0.000071     0.000015    -0.005368     0.005369    -0.000195     0.001678    -0.002731     0.002813     0.082766    -0.015377    -0.012456     0.027833
   19 Pt     5.610603     6.478568     4.581048    -0.075831    -0.007157     0.008081     0.103833     0.104393     0.007048     0.006885    -0.018053    -0.008335     0.116467    -0.031167    -0.013437     0.044604
   20 Pt     4.207950     4.049103     4.581048    -0.057265     0.005807     0.001346     0.118589     0.118739    -0.001400     0.004253     0.007184    -0.008642     0.227375    -0.042686    -0.033721     0.076407
   21 Pt     2.805297     1.619638     4.581048    -0.076736     0.006711    -0.010657     0.086155     0.087071     0.017052     0.007500    -0.000430    -0.003882     0.092791    -0.033173     0.000992     0.032181
   22 Pt     8.415900     6.478568     4.581048     0.010208     0.006107    -0.004726     0.154806     0.154998    -0.003926     0.031558    -0.034154     0.001921     0.244970    -0.053211    -0.044500     0.097711
   23 Pt     7.013247     4.049103     4.581048     0.039977    -0.054563     0.028231    -0.152447     0.164360    -0.008907     0.022804    -0.020381     0.001789    -0.007042    -0.027326    -0.007777     0.035103
   24 Pt     5.610603     1.619638     4.581048    -0.022844     0.006070     0.014306     0.123998     0.124968     0.008498     0.019970     0.014155    -0.004080     0.174397    -0.038527    -0.026527     0.065054
   25 Pt    11.221206     6.478568     4.581048    -0.023153     0.001358    -0.005104     0.130376     0.130483    -0.004208    -0.035091    -0.025362     0.013367     0.233321    -0.057507    -0.034439     0.091946
   26 Pt     9.818553     4.049103     4.581048     0.024517     0.016559     0.018515     0.005600     0.025463     0.006903    -0.009359     0.044919     0.013464    -0.061785    -0.056860     0.018857     0.038003
   27 Pt     8.415900     1.619638     4.581048    -0.080548     0.004941    -0.021883     0.020812     0.030601    -0.009855    -0.003076     0.008179    -0.004494    -0.124100    -0.042447     0.010707     0.031740
   28 C      7.663009     3.535047     6.335640     0.183843    -0.066661    -0.016278     0.086891     0.110719    -0.010671    -0.036459     0.047139    -0.141785    -0.208351    -0.098905    -0.021059     0.119964
   29 C      9.089525     3.929982     6.733896     0.084537     0.026088     0.067640    -0.001839     0.072520     0.002724    -0.026545    -0.063043     0.067760     0.167167    -0.089882    -0.000929     0.090810
   30 O      9.203313     5.057181     7.296552    -0.332534     0.003040    -0.081820    -0.058539     0.100650     0.036458    -0.038985    -0.003697    -0.136388     0.134658    -0.108705     0.041643     0.067063
   31 O      6.836316     3.182143     7.312440    -0.314657     0.034203     0.025479    -0.069436     0.081488     0.006337    -0.017273    -0.022661    -0.024490     0.257052    -0.057721    -0.034461     0.092181
   32 H      9.765242     3.074435     6.983880     0.078664     0.045781    -0.036194     0.021390     0.062157     0.000750     0.015486     0.000297     0.011947    -0.015848    -0.015309    -0.003359     0.018668
   33 H      7.311242     3.145147     8.174520     0.397173     0.012930    -0.001830     0.040032     0.042109     0.002075     0.001127    -0.004488     0.013316     0.046750    -0.015450    -0.000829     0.016278
 
The sperically averaged electron density of each atom fit to a function of the form exp(a - br) for r >=rmin_cloud_penetration
atom number,atomic symbol, x, y, z, a, b, Rsquared where a and b are in atomic units and Rsquared is the squared correlation coefficient
    1 Pt     0.000000     0.000000     0.000000     0.618361     1.732261     0.999925
    2 Pt     2.805301     4.858922     0.000000     0.609713     1.731034     0.999931
    3 Pt     1.402649     2.429458     0.000000     0.611688     1.731312     0.999930
    4 Pt     2.805297     0.000000     0.000000     0.618592     1.731072     0.999933
    5 Pt     5.610599     4.858922     0.000000     0.603126     1.731083     0.999929
    6 Pt     4.207946     2.429458     0.000000     0.617815     1.731481     0.999932
    7 Pt     5.610603     0.000000     0.000000     0.615821     1.730981     0.999932
    8 Pt     8.415904     4.858922     0.000000     0.607076     1.730605     0.999936
    9 Pt     7.013251     2.429458     0.000000     0.607319     1.731228     0.999930
   10 Pt     4.207950     5.668742     2.290536     0.660145     1.753450     0.999995
   11 Pt     2.805301     3.239284     2.290536     0.663328     1.753369     0.999997
   12 Pt     1.402649     0.809819     2.290536     0.646535     1.751511     0.999997
   13 Pt     7.013247     5.668742     2.290536     0.672452     1.753140     0.999998
   14 Pt     5.610599     3.239284     2.290536     0.664375     1.752104     0.999997
   15 Pt     4.207946     0.809819     2.290536     0.654466     1.753380     0.999996
   16 Pt     9.818553     5.668742     2.290536     0.679668     1.755513     0.999995
   17 Pt     8.415904     3.239284     2.290536     0.670616     1.753373     0.999996
   18 Pt     7.013251     0.809819     2.290536     0.658148     1.753052     0.999996
   19 Pt     5.610603     6.478568     4.581048     0.766734     1.755519     0.999989
   20 Pt     4.207950     4.049103     4.581048     0.728084     1.759325     0.999975
   21 Pt     2.805297     1.619638     4.581048     0.800631     1.766961     0.999987
   22 Pt     8.415900     6.478568     4.581048     0.694552     1.759940     0.999983
   23 Pt     7.013247     4.049103     4.581048     0.539922     1.753784     0.999972
   24 Pt     5.610603     1.619638     4.581048     0.759118     1.768765     0.999986
   25 Pt    11.221206     6.478568     4.581048     0.714780     1.758539     0.999988
   26 Pt     9.818553     4.049103     4.581048     0.615521     1.756363     0.999984
   27 Pt     8.415900     1.619638     4.581048     0.737040     1.760174     0.999989
   28 C      7.663009     3.535047     6.335640    -0.488820     1.839858     0.999603
   29 C      9.089525     3.929982     6.733896    -0.730074     1.814791     0.999520
   30 O      9.203313     5.057181     7.296552    -1.418525     1.767221     0.999526
   31 O      6.836316     3.182143     7.312440    -1.651133     1.750853     0.999747
   32 H      9.765242     3.074435     6.983880    -2.641945     1.740328     0.999968
   33 H      7.311242     3.145147     8.174520    -4.790629     1.620378     0.992765
 
 2020/09/10  20:04:17
