   36
jmolscript: load "" {1 1 1} spacegroup "x,y,z" unitcell [{      8.415900     0.000000     0.000000 }, {      4.207950     7.288380     0.000000 }, {      0.000000     0.000000    24.000000 }]
Pt     0.000000     0.000000     0.000000    -0.038770
Pt     2.805301     4.858922     0.000000    -0.040341
Pt     1.402649     2.429458     0.000000    -0.032984
Pt     2.805297     0.000000     0.000000    -0.033248
Pt     5.610599     4.858922     0.000000    -0.031543
Pt     4.207946     2.429458     0.000000    -0.032608
Pt     5.610603     0.000000     0.000000    -0.041057
Pt     8.415904     4.858922     0.000000    -0.027173
Pt     7.013251     2.429458     0.000000    -0.027432
Pt     4.207950     5.668742     2.290536     0.065765
Pt     2.805301     3.239284     2.290536     0.062341
Pt     1.402649     0.809819     2.290536     0.071234
Pt     7.013247     5.668742     2.290536     0.023859
Pt     5.610599     3.239284     2.290536     0.014069
Pt     4.207946     0.809819     2.290536     0.061856
Pt     9.818553     5.668742     2.290536     0.074523
Pt     8.415904     3.239284     2.290536     0.028584
Pt     7.013251     0.809819     2.290536     0.074596
Pt     5.610603     6.478568     4.581048    -0.040443
Pt     4.207950     4.049103     4.581048     0.000454
Pt     2.805297     1.619638     4.581048    -0.027690
Pt     8.415900     6.478568     4.581048    -0.024481
Pt     7.013247     4.049103     4.581048     0.197320
Pt     5.610603     1.619638     4.581048    -0.019365
Pt    11.221206     6.478568     4.581048    -0.093103
Pt     9.818553     4.049103     4.581048    -0.023967
Pt     8.415900     1.619638     4.581048    -0.067717
C      6.083395     4.794464     7.300536     0.016296
C      5.172968     3.788719     8.047536     0.043929
O      7.109050     4.141090     6.599496    -0.315837
O      5.082030     2.529338     7.389792    -0.428791
H      5.451997     5.426797     6.606816     0.042631
H      6.539453     5.504323     8.017752     0.092817
H      4.149552     4.185323     8.125680     0.085937
H      5.576716     3.639095     9.067416     0.065833
H      6.001656     2.312588     7.114272     0.324507
 
 Chargemol version 3.5 September 26, 2017.
See ddec.sourceforge.net for latest version.
 
Computational parameters:
Number of radial integration shells =    100
Cutoff radius (pm) =    500
Error in the integrated total number of electrons before renormalization (e) =    4.8694E-05
Charge convergence tolerance =    1.0000E-05
Minimum radius for electron cloud penetration fitting (pm) =    200
Minimum decay exponent for electron density of buried atom tails =   1.7500
Maximum decay exponent for electron density of buried atom tails =  2.5000
Number of iterations to convergence =      7
 
The following XYZ coordinates are in angstroms. The atomic dipoles and quadrupoles are in atomic units.
atom number, atomic symbol, x, y, z, net_charge, dipole_x, dipole_y, dipole_z, dipole_mag, Qxy, Qxz, Qyz,Q(x^2-y^2), Q(3z^2 - R^2), three eigenvalues of traceless quadrupole moment tensor
    1 Pt     0.000000     0.000000     0.000000    -0.038770     0.001689    -0.002163    -0.115645     0.115678     0.003495    -0.003347     0.001192     0.003779     0.154825    -0.029869    -0.021900     0.051770
    2 Pt     2.805301     4.858922     0.000000    -0.040341     0.001871     0.000561    -0.106438     0.106456     0.001656    -0.000635    -0.002444    -0.008581     0.124616    -0.025369    -0.016280     0.041649
    3 Pt     1.402649     2.429458     0.000000    -0.032984    -0.002512     0.002404    -0.111338     0.111393     0.002825     0.005327    -0.001678    -0.007380     0.176839    -0.034454    -0.024826     0.059280
    4 Pt     2.805297     0.000000     0.000000    -0.033248    -0.000298     0.000769    -0.110233     0.110236    -0.002078     0.002452    -0.006023     0.006996     0.171539    -0.032960    -0.024705     0.057665
    5 Pt     5.610599     4.858922     0.000000    -0.031543     0.000011    -0.002293    -0.096861     0.096888    -0.003204     0.007819    -0.002454    -0.001418     0.153693    -0.029180    -0.022931     0.052110
    6 Pt     4.207946     2.429458     0.000000    -0.032608     0.000768     0.000343    -0.108878     0.108882    -0.000991     0.003982     0.003604     0.000514     0.182260    -0.031704    -0.029362     0.061065
    7 Pt     5.610603     0.000000     0.000000    -0.041057    -0.000188     0.000153    -0.107132     0.107132    -0.002434    -0.002602     0.002549     0.005828     0.126752    -0.024957    -0.017512     0.042468
    8 Pt     8.415904     4.858922     0.000000    -0.027173    -0.000551     0.000311    -0.105394     0.105396    -0.000001    -0.009024    -0.005346    -0.001092     0.199842    -0.034786    -0.032914     0.067700
    9 Pt     7.013251     2.429458     0.000000    -0.027432    -0.002357     0.000930    -0.103119     0.103150    -0.001493    -0.000527     0.010659    -0.001087     0.185162    -0.032897    -0.030047     0.062944
   10 Pt     4.207950     5.668742     2.290536     0.065765    -0.000724     0.000610    -0.007742     0.007800    -0.001197    -0.008383     0.005907    -0.007907     0.074433    -0.018001    -0.009463     0.027464
   11 Pt     2.805301     3.239284     2.290536     0.062341    -0.001132     0.001447    -0.002894     0.003428     0.001315    -0.002860    -0.000941     0.013721     0.074983    -0.019493    -0.005791     0.025284
   12 Pt     1.402649     0.809819     2.290536     0.071234    -0.002252     0.001560     0.001972     0.003375    -0.002530    -0.000926     0.000522    -0.005495     0.091149    -0.018935    -0.011473     0.030408
   13 Pt     7.013247     5.668742     2.290536     0.023859     0.001338     0.022217    -0.036763     0.042975     0.005688     0.002613     0.028961     0.001023     0.055867    -0.028482    -0.008778     0.037260
   14 Pt     5.610599     3.239284     2.290536     0.014069    -0.020232    -0.011429    -0.043786     0.049570    -0.000062    -0.022763    -0.014672    -0.003038     0.026728    -0.026144    -0.003740     0.029884
   15 Pt     4.207946     0.809819     2.290536     0.061856     0.000602    -0.002293    -0.003663     0.004363     0.005988    -0.000771    -0.002804    -0.007157     0.076092    -0.019670    -0.005959     0.025629
   16 Pt     9.818553     5.668742     2.290536     0.074523    -0.000739     0.000189    -0.000770     0.001084    -0.002152     0.004855     0.004184    -0.000071     0.095524    -0.018880    -0.013771     0.032651
   17 Pt     8.415904     3.239284     2.290536     0.028584     0.022016    -0.013403    -0.031661     0.040826    -0.000092     0.031301    -0.018899     0.004114     0.058285    -0.033887    -0.010679     0.044566
   18 Pt     7.013251     0.809819     2.290536     0.074596     0.002198     0.000345    -0.000765     0.002353    -0.003951     0.000811    -0.006022     0.004126     0.090738    -0.020039    -0.010998     0.031037
   19 Pt     5.610603     6.478568     4.581048    -0.040443     0.002061     0.012991     0.072602     0.073783    -0.008158     0.026061    -0.032896     0.024272     0.091051    -0.042578    -0.014854     0.057432
   20 Pt     4.207950     4.049103     4.581048     0.000454    -0.002421    -0.015376     0.126508     0.127462    -0.000921     0.035126    -0.016440    -0.020025     0.242905    -0.059644    -0.032259     0.091903
   21 Pt     2.805297     1.619638     4.581048    -0.027690     0.008787     0.004908     0.129816     0.130206    -0.004320     0.026785     0.012226     0.019556     0.241120    -0.053639    -0.033746     0.087385
   22 Pt     8.415900     6.478568     4.581048    -0.024481     0.003323    -0.007417     0.141559     0.141792    -0.002080    -0.016765    -0.036088    -0.005740     0.301544    -0.060992    -0.049400     0.110392
   23 Pt     7.013247     4.049103     4.581048     0.197320     0.028551    -0.000139     0.075194     0.080432    -0.010166     0.023902     0.022041     0.015366     0.341483    -0.074671    -0.044855     0.119526
   24 Pt     5.610603     1.619638     4.581048    -0.019365    -0.029481    -0.009594     0.104062     0.108582    -0.010705    -0.039037     0.003075     0.016803     0.150033    -0.042689    -0.025853     0.068542
   25 Pt    11.221206     6.478568     4.581048    -0.093103    -0.001411     0.005341     0.080996     0.081184     0.009571    -0.006225    -0.002669     0.012978     0.083071    -0.025415    -0.003731     0.029146
   26 Pt     9.818553     4.049103     4.581048    -0.023967    -0.017768     0.000475     0.139859     0.140984     0.001892    -0.061989     0.001326    -0.007616     0.274241    -0.073062    -0.041740     0.114802
   27 Pt     8.415900     1.619638     4.581048    -0.067717     0.010414     0.000202     0.108163     0.108663     0.011800    -0.002214     0.046158    -0.032584     0.193366    -0.055789    -0.029739     0.085528
   28 C      6.083395     4.794464     7.300536     0.016296     0.056350    -0.075298    -0.035749     0.100614    -0.023087    -0.007829     0.003952     0.038628    -0.021439    -0.026531    -0.008945     0.035476
   29 C      5.172968     3.788719     8.047536     0.043929     0.010424    -0.088760    -0.088923     0.126073     0.017920     0.009245     0.025377    -0.044848    -0.109638    -0.044520    -0.010429     0.054949
   30 O      7.109050     4.141090     6.599496    -0.315837    -0.109474     0.074368    -0.006545     0.132506    -0.060433    -0.044505     0.035486     0.080994     0.335640    -0.129176    -0.008932     0.138108
   31 O      5.082030     2.529338     7.389792    -0.428791     0.008045     0.126208     0.041185     0.133002    -0.047799    -0.028228     0.117852    -0.035695    -0.161701    -0.132387    -0.013326     0.145713
   32 H      5.451997     5.426797     6.606816     0.042631    -0.023787     0.019753    -0.020718     0.037219    -0.006910    -0.009410     0.000695     0.001621    -0.009175    -0.011394    -0.001164     0.012558
   33 H      6.539453     5.504323     8.017752     0.092817     0.027671     0.025610     0.025501     0.045517     0.001275    -0.000530     0.006893     0.016790    -0.020267    -0.012897     0.001028     0.011869
   34 H      4.149552     4.185323     8.125680     0.085937    -0.047106     0.011573    -0.006901     0.048995     0.001797    -0.001834     0.006798    -0.005759    -0.047145    -0.017576     0.004963     0.012613
   35 H      5.576716     3.639095     9.067416     0.065833     0.021904    -0.015458     0.035111     0.044176    -0.001252     0.005698    -0.003486    -0.009198    -0.006254    -0.008705     0.000643     0.008062
   36 H      6.001656     2.312588     7.114272     0.324507     0.032932    -0.014085    -0.004853     0.036145    -0.011819     0.011116     0.011584     0.000158    -0.020128    -0.023664     0.008483     0.015181
 
The sperically averaged electron density of each atom fit to a function of the form exp(a - br) for r >=rmin_cloud_penetration
atom number,atomic symbol, x, y, z, a, b, Rsquared where a and b are in atomic units and Rsquared is the squared correlation coefficient
    1 Pt     0.000000     0.000000     0.000000     0.616898     1.732061     0.999925
    2 Pt     2.805301     4.858922     0.000000     0.615013     1.730919     0.999930
    3 Pt     1.402649     2.429458     0.000000     0.608602     1.731194     0.999926
    4 Pt     2.805297     0.000000     0.000000     0.609854     1.730973     0.999929
    5 Pt     5.610599     4.858922     0.000000     0.610264     1.730495     0.999932
    6 Pt     4.207946     2.429458     0.000000     0.613109     1.731011     0.999931
    7 Pt     5.610603     0.000000     0.000000     0.615987     1.731075     0.999929
    8 Pt     8.415904     4.858922     0.000000     0.604809     1.730326     0.999934
    9 Pt     7.013251     2.429458     0.000000     0.606447     1.730615     0.999931
   10 Pt     4.207950     5.668742     2.290536     0.659985     1.752758     0.999996
   11 Pt     2.805301     3.239284     2.290536     0.661432     1.753630     0.999996
   12 Pt     1.402649     0.809819     2.290536     0.653038     1.752514     0.999997
   13 Pt     7.013247     5.668742     2.290536     0.692946     1.756208     0.999996
   14 Pt     5.610599     3.239284     2.290536     0.694633     1.755692     0.999996
   15 Pt     4.207946     0.809819     2.290536     0.662793     1.753611     0.999996
   16 Pt     9.818553     5.668742     2.290536     0.665105     1.754214     0.999996
   17 Pt     8.415904     3.239284     2.290536     0.689890     1.755500     0.999996
   18 Pt     7.013251     0.809819     2.290536     0.655003     1.752321     0.999997
   19 Pt     5.610603     6.478568     4.581048     0.711892     1.762824     0.999975
   20 Pt     4.207950     4.049103     4.581048     0.670323     1.761712     0.999975
   21 Pt     2.805297     1.619638     4.581048     0.742259     1.764730     0.999974
   22 Pt     8.415900     6.478568     4.581048     0.711555     1.762159     0.999959
   23 Pt     7.013247     4.049103     4.581048     0.536333     1.767369     0.999957
   24 Pt     5.610603     1.619638     4.581048     0.719960     1.766664     0.999968
   25 Pt    11.221206     6.478568     4.581048     0.853140     1.772873     0.999979
   26 Pt     9.818553     4.049103     4.581048     0.765113     1.769864     0.999991
   27 Pt     8.415900     1.619638     4.581048     0.841518     1.775991     0.999992
   28 C      6.083395     4.794464     7.300536    -0.960979     1.781151     0.999701
   29 C      5.172968     3.788719     8.047536    -1.071766     1.822069     0.997990
   30 O      7.109050     4.141090     6.599496    -1.234530     1.759105     0.999886
   31 O      5.082030     2.529338     7.389792    -1.287812     1.765696     0.999972
   32 H      5.451997     5.426797     6.606816    -1.916557     1.839441     0.999689
   33 H      6.539453     5.504323     8.017752    -3.348334     1.707222     0.999788
   34 H      4.149552     4.185323     8.125680    -2.923180     1.779692     0.999051
   35 H      5.576716     3.639095     9.067416    -3.485062     1.767170     0.989001
   36 H      6.001656     2.312588     7.114272    -2.360879     1.870678     0.999875
 
 2020/09/16  11:08:07
